
     RDKit          3D

 21 21  0  0  0  0  0  0  0  0999 V2000
    3.4563    0.7238   -0.0026 C   0  0  0  0  0  0  0  0  0  0  0  0
    2.0937    0.1920   -0.1801 C   0  0  0  0  0  0  0  0  0  0  0  0
    1.7868   -0.2201   -1.3416 O   0  0  0  0  0  0  0  0  0  0  0  0
    1.1540    0.1280    0.8590 O   0  0  0  0  0  0  0  0  0  0  0  0
   -0.0780   -0.4040    0.5021 C   0  0  0  0  0  0  0  0  0  0  0  0
   -0.2311   -1.7765    0.6358 C   0  0  0  0  0  0  0  0  0  0  0  0
   -1.4242   -2.3934    0.3041 C   0  0  0  0  0  0  0  0  0  0  0  0
   -2.4653   -1.5962   -0.1675 C   0  0  0  0  0  0  0  0  0  0  0  0
   -2.3056   -0.2299   -0.2982 C   0  0  0  0  0  0  0  0  0  0  0  0
   -1.1132    0.3805    0.0343 C   0  0  0  0  0  0  0  0  0  0  0  0
   -0.9366    1.8219   -0.1007 C   0  0  0  0  0  0  0  0  0  0  0  0
    0.1394    2.3576    0.2013 O   0  0  0  0  0  0  0  0  0  0  0  0
   -2.0051    2.5859   -0.5773 O   0  0  0  0  0  0  0  0  0  0  0  0
    3.7067    1.5339   -0.7192 H   0  0  0  0  0  0  0  0  0  0  0  0
    3.6852    1.0371    1.0146 H   0  0  0  0  0  0  0  0  0  0  0  0
    4.1485   -0.1335   -0.2352 H   0  0  0  0  0  0  0  0  0  0  0  0
    0.5594   -2.4025    0.9968 H   0  0  0  0  0  0  0  0  0  0  0  0
   -1.5431   -3.4692    0.4093 H   0  0  0  0  0  0  0  0  0  0  0  0
   -3.4005   -2.0709   -0.4288 H   0  0  0  0  0  0  0  0  0  0  0  0
   -3.1054    0.3926   -0.6618 H   0  0  0  0  0  0  0  0  0  0  0  0
   -2.1221    3.5430   -0.2442 H   0  0  0  0  0  0  0  0  0  0  0  0
  1  2  1  0
  2  3  2  0
  2  4  1  0
  4  5  1  0
  5  6  2  0
  6  7  1  0
  7  8  2  0
  8  9  1  0
  9 10  2  0
 10 11  1  0
 11 12  2  0
 11 13  1  0
 10  5  1  0
  1 14  1  0
  1 15  1  0
  1 16  1  0
  6 17  1  0
  7 18  1  0
  8 19  1  0
  9 20  1  0
 13 21  1  0
M  END
$$$$

     RDKit          3D

 21 21  0  0  0  0  0  0  0  0999 V2000
    3.3130    0.9085   -0.0227 C   0  0  0  0  0  0  0  0  0  0  0  0
    1.9887    0.2718   -0.2540 C   0  0  0  0  0  0  0  0  0  0  0  0
    1.7733   -0.1850   -1.4111 O   0  0  0  0  0  0  0  0  0  0  0  0
    1.0221    0.1815    0.7632 O   0  0  0  0  0  0  0  0  0  0  0  0
   -0.1730   -0.4253    0.4520 C   0  0  0  0  0  0  0  0  0  0  0  0
   -0.2875   -1.7992    0.6438 C   0  0  0  0  0  0  0  0  0  0  0  0
   -1.4459   -2.4782    0.3576 C   0  0  0  0  0  0  0  0  0  0  0  0
   -2.5062   -1.7259   -0.1358 C   0  0  0  0  0  0  0  0  0  0  0  0
   -2.3985   -0.3525   -0.3299 C   0  0  0  0  0  0  0  0  0  0  0  0
   -1.2324    0.3111   -0.0384 C   0  0  0  0  0  0  0  0  0  0  0  0
   -1.1497    1.7469   -0.2516 C   0  0  0  0  0  0  0  0  0  0  0  0
   -2.1415    2.3946   -0.7037 O   0  0  0  0  0  0  0  0  0  0  0  0
   -0.0026    2.4673    0.0238 O   0  0  0  0  0  0  0  0  0  0  0  0
    4.1143    0.2040   -0.3336 H   0  0  0  0  0  0  0  0  0  0  0  0
    3.4897    1.1012    1.0631 H   0  0  0  0  0  0  0  0  0  0  0  0
    3.4315    1.8850   -0.5231 H   0  0  0  0  0  0  0  0  0  0  0  0
    0.5433   -2.3945    1.0314 H   0  0  0  0  0  0  0  0  0  0  0  0
   -1.5206   -3.5388    0.5104 H   0  0  0  0  0  0  0  0  0  0  0  0
   -3.4479   -2.2255   -0.3774 H   0  0  0  0  0  0  0  0  0  0  0  0
   -3.2660    0.1869   -0.7208 H   0  0  0  0  0  0  0  0  0  0  0  0
   -0.1038    3.4661    0.2570 H   0  0  0  0  0  0  0  0  0  0  0  0
  1  2  1  0
  2  3  2  0
  2  4  1  0
  4  5  1  0
  5  6  2  0
  6  7  1  0
  7  8  2  0
  8  9  1  0
  9 10  2  0
 10 11  1  0
 11 12  2  0
 11 13  1  0
 10  5  1  0
  1 14  1  0
  1 15  1  0
  1 16  1  0
  6 17  1  0
  7 18  1  0
  8 19  1  0
  9 20  1  0
 13 21  1  0
M  END
$$$$

     RDKit          3D

 21 21  0  0  0  0  0  0  0  0999 V2000
    3.3147    0.9628    0.0570 C   0  0  0  0  0  0  0  0  0  0  0  0
    1.9892    0.3957    0.4318 C   0  0  0  0  0  0  0  0  0  0  0  0
    1.6359    0.2809    1.6344 O   0  0  0  0  0  0  0  0  0  0  0  0
    1.1151   -0.0193   -0.5719 O   0  0  0  0  0  0  0  0  0  0  0  0
   -0.1339   -0.5558   -0.2851 C   0  0  0  0  0  0  0  0  0  0  0  0
   -0.2408   -1.9240   -0.1122 C   0  0  0  0  0  0  0  0  0  0  0  0
   -1.4795   -2.4821    0.1752 C   0  0  0  0  0  0  0  0  0  0  0  0
   -2.5811   -1.6610    0.2829 C   0  0  0  0  0  0  0  0  0  0  0  0
   -2.4846   -0.2954    0.1121 C   0  0  0  0  0  0  0  0  0  0  0  0
   -1.2497    0.2477   -0.1729 C   0  0  0  0  0  0  0  0  0  0  0  0
   -1.1463    1.6949   -0.3541 C   0  0  0  0  0  0  0  0  0  0  0  0
   -2.1776    2.4421   -0.2509 O   0  0  0  0  0  0  0  0  0  0  0  0
    0.0726    2.2944   -0.6424 O   0  0  0  0  0  0  0  0  0  0  0  0
    3.3068    2.0748   -0.0145 H   0  0  0  0  0  0  0  0  0  0  0  0
    4.0334    0.6981    0.8680 H   0  0  0  0  0  0  0  0  0  0  0  0
    3.7213    0.5037   -0.8592 H   0  0  0  0  0  0  0  0  0  0  0  0
    0.6210   -2.5669   -0.1963 H   0  0  0  0  0  0  0  0  0  0  0  0
   -1.5608   -3.5519    0.3100 H   0  0  0  0  0  0  0  0  0  0  0  0
   -3.5503   -2.1129    0.5094 H   0  0  0  0  0  0  0  0  0  0  0  0
   -3.3341    0.3683    0.1917 H   0  0  0  0  0  0  0  0  0  0  0  0
    0.1285    3.2059   -1.1130 H   0  0  0  0  0  0  0  0  0  0  0  0
  1  2  1  0
  2  3  2  0
  2  4  1  0
  4  5  1  0
  5  6  2  0
  6  7  1  0
  7  8  2  0
  8  9  1  0
  9 10  2  0
 10 11  1  0
 11 12  2  0
 11 13  1  0
 10  5  1  0
  1 14  1  0
  1 15  1  0
  1 16  1  0
  6 17  1  0
  7 18  1  0
  8 19  1  0
  9 20  1  0
 13 21  1  0
M  END
$$$$

     RDKit          3D

 21 21  0  0  0  0  0  0  0  0999 V2000
    3.3031    0.8882    0.0213 C   0  0  0  0  0  0  0  0  0  0  0  0
    1.9780    0.2606   -0.2081 C   0  0  0  0  0  0  0  0  0  0  0  0
    1.6865   -0.2537   -1.3353 O   0  0  0  0  0  0  0  0  0  0  0  0
    1.0139    0.2175    0.8083 O   0  0  0  0  0  0  0  0  0  0  0  0
   -0.1839   -0.3967    0.4670 C   0  0  0  0  0  0  0  0  0  0  0  0
   -0.2733   -1.7582    0.6927 C   0  0  0  0  0  0  0  0  0  0  0  0
   -1.4278   -2.4258    0.3782 C   0  0  0  0  0  0  0  0  0  0  0  0
   -2.4948   -1.7164   -0.1658 C   0  0  0  0  0  0  0  0  0  0  0  0
   -2.4057   -0.3424   -0.3939 C   0  0  0  0  0  0  0  0  0  0  0  0
   -1.2389    0.3055   -0.0709 C   0  0  0  0  0  0  0  0  0  0  0  0
   -1.1393    1.7401   -0.3067 C   0  0  0  0  0  0  0  0  0  0  0  0
   -2.1041    2.3898   -0.8001 O   0  0  0  0  0  0  0  0  0  0  0  0
    0.0053    2.4606   -0.0061 O   0  0  0  0  0  0  0  0  0  0  0  0
    3.7716    0.5889    0.9814 H   0  0  0  0  0  0  0  0  0  0  0  0
    3.9998    0.5553   -0.7741 H   0  0  0  0  0  0  0  0  0  0  0  0
    3.1906    1.9855   -0.0698 H   0  0  0  0  0  0  0  0  0  0  0  0
    0.5636   -2.3099    1.1185 H   0  0  0  0  0  0  0  0  0  0  0  0
   -1.4770   -3.4923    0.5629 H   0  0  0  0  0  0  0  0  0  0  0  0
   -3.4110   -2.2687   -0.4111 H   0  0  0  0  0  0  0  0  0  0  0  0
   -3.2739    0.1448   -0.8193 H   0  0  0  0  0  0  0  0  0  0  0  0
   -0.0828    3.4273    0.3309 H   0  0  0  0  0  0  0  0  0  0  0  0
  1  2  1  0
  2  3  2  0
  2  4  1  0
  4  5  1  0
  5  6  2  0
  6  7  1  0
  7  8  2  0
  8  9  1  0
  9 10  2  0
 10 11  1  0
 11 12  2  0
 11 13  1  0
 10  5  1  0
  1 14  1  0
  1 15  1  0
  1 16  1  0
  6 17  1  0
  7 18  1  0
  8 19  1  0
  9 20  1  0
 13 21  1  0
M  END
$$$$

     RDKit          3D

 21 21  0  0  0  0  0  0  0  0999 V2000
    3.3209    0.9610    0.0771 C   0  0  0  0  0  0  0  0  0  0  0  0
    2.0329    0.3051   -0.3265 C   0  0  0  0  0  0  0  0  0  0  0  0
    1.8778   -0.0795   -1.5334 O   0  0  0  0  0  0  0  0  0  0  0  0
    1.0465    0.1379    0.6346 O   0  0  0  0  0  0  0  0  0  0  0  0
   -0.1789   -0.4474    0.3973 C   0  0  0  0  0  0  0  0  0  0  0  0
   -0.2674   -1.8274    0.5810 C   0  0  0  0  0  0  0  0  0  0  0  0
   -1.4815   -2.4509    0.3524 C   0  0  0  0  0  0  0  0  0  0  0  0
   -2.5791   -1.6989   -0.0518 C   0  0  0  0  0  0  0  0  0  0  0  0
   -2.5120   -0.3327   -0.2392 C   0  0  0  0  0  0  0  0  0  0  0  0
   -1.2940    0.2716   -0.0067 C   0  0  0  0  0  0  0  0  0  0  0  0
   -1.1631    1.7269   -0.1905 C   0  0  0  0  0  0  0  0  0  0  0  0
   -2.1554    2.4119   -0.5568 O   0  0  0  0  0  0  0  0  0  0  0  0
    0.0338    2.3628    0.0317 O   0  0  0  0  0  0  0  0  0  0  0  0
    3.5132    0.6628    1.1336 H   0  0  0  0  0  0  0  0  0  0  0  0
    4.1053    0.5547   -0.6045 H   0  0  0  0  0  0  0  0  0  0  0  0
    3.2477    2.0680    0.0240 H   0  0  0  0  0  0  0  0  0  0  0  0
    0.6161   -2.3793    0.8984 H   0  0  0  0  0  0  0  0  0  0  0  0
   -1.5221   -3.5145    0.5013 H   0  0  0  0  0  0  0  0  0  0  0  0
   -3.5309   -2.2146   -0.2270 H   0  0  0  0  0  0  0  0  0  0  0  0
   -3.3868    0.2014   -0.5516 H   0  0  0  0  0  0  0  0  0  0  0  0
    0.2771    3.2811   -0.3435 H   0  0  0  0  0  0  0  0  0  0  0  0
  1  2  1  0
  2  3  2  0
  2  4  1  0
  4  5  1  0
  5  6  2  0
  6  7  1  0
  7  8  2  0
  8  9  1  0
  9 10  2  0
 10 11  1  0
 11 12  2  0
 11 13  1  0
 10  5  1  0
  1 14  1  0
  1 15  1  0
  1 16  1  0
  6 17  1  0
  7 18  1  0
  8 19  1  0
  9 20  1  0
 13 21  1  0
M  END
$$$$

     RDKit          3D

 21 21  0  0  0  0  0  0  0  0999 V2000
    3.4670    0.7690    0.0721 C   0  0  0  0  0  0  0  0  0  0  0  0
    2.1434    0.2093   -0.2846 C   0  0  0  0  0  0  0  0  0  0  0  0
    1.9109   -0.1222   -1.4951 O   0  0  0  0  0  0  0  0  0  0  0  0
    1.1924    0.0566    0.6868 O   0  0  0  0  0  0  0  0  0  0  0  0
   -0.0851   -0.4666    0.4256 C   0  0  0  0  0  0  0  0  0  0  0  0
   -0.2167   -1.8404    0.5453 C   0  0  0  0  0  0  0  0  0  0  0  0
   -1.4514   -2.4022    0.2991 C   0  0  0  0  0  0  0  0  0  0  0  0
   -2.5391   -1.5991   -0.0620 C   0  0  0  0  0  0  0  0  0  0  0  0
   -2.3899   -0.2237   -0.1774 C   0  0  0  0  0  0  0  0  0  0  0  0
   -1.1482    0.3377    0.0706 C   0  0  0  0  0  0  0  0  0  0  0  0
   -0.9454    1.7658   -0.0374 C   0  0  0  0  0  0  0  0  0  0  0  0
    0.1919    2.2508    0.1930 O   0  0  0  0  0  0  0  0  0  0  0  0
   -1.9736    2.6296   -0.3903 O   0  0  0  0  0  0  0  0  0  0  0  0
    3.8272    0.3267    1.0300 H   0  0  0  0  0  0  0  0  0  0  0  0
    4.2133    0.5916   -0.7444 H   0  0  0  0  0  0  0  0  0  0  0  0
    3.4258    1.8844    0.2376 H   0  0  0  0  0  0  0  0  0  0  0  0
    0.5841   -2.4953    0.8182 H   0  0  0  0  0  0  0  0  0  0  0  0
   -1.6409   -3.4692    0.3702 H   0  0  0  0  0  0  0  0  0  0  0  0
   -3.5008   -2.0819   -0.2487 H   0  0  0  0  0  0  0  0  0  0  0  0
   -3.2480    0.3671   -0.4575 H   0  0  0  0  0  0  0  0  0  0  0  0
   -1.8169    3.5121   -0.8511 H   0  0  0  0  0  0  0  0  0  0  0  0
  1  2  1  0
  2  3  2  0
  2  4  1  0
  4  5  1  0
  5  6  2  0
  6  7  1  0
  7  8  2  0
  8  9  1  0
  9 10  2  0
 10 11  1  0
 11 12  2  0
 11 13  1  0
 10  5  1  0
  1 14  1  0
  1 15  1  0
  1 16  1  0
  6 17  1  0
  7 18  1  0
  8 19  1  0
  9 20  1  0
 13 21  1  0
M  END
$$$$

     RDKit          3D

 21 21  0  0  0  0  0  0  0  0999 V2000
    3.3893    0.8661    0.2365 C   0  0  0  0  0  0  0  0  0  0  0  0
    2.0423    0.3194    0.3960 C   0  0  0  0  0  0  0  0  0  0  0  0
    1.5243    0.2373    1.5612 O   0  0  0  0  0  0  0  0  0  0  0  0
    1.2634   -0.1298   -0.6591 O   0  0  0  0  0  0  0  0  0  0  0  0
   -0.0124   -0.6291   -0.3486 C   0  0  0  0  0  0  0  0  0  0  0  0
   -0.2010   -1.9834   -0.0624 C   0  0  0  0  0  0  0  0  0  0  0  0
   -1.4741   -2.4248    0.2367 C   0  0  0  0  0  0  0  0  0  0  0  0
   -2.5212   -1.5337    0.2473 C   0  0  0  0  0  0  0  0  0  0  0  0
   -2.3480   -0.1919   -0.0340 C   0  0  0  0  0  0  0  0  0  0  0  0
   -1.0745    0.2550   -0.3342 C   0  0  0  0  0  0  0  0  0  0  0  0
   -0.8512    1.6478   -0.6336 C   0  0  0  0  0  0  0  0  0  0  0  0
    0.3023    2.0578   -0.9065 O   0  0  0  0  0  0  0  0  0  0  0  0
   -1.9074    2.5528   -0.6241 O   0  0  0  0  0  0  0  0  0  0  0  0
    3.4281    1.9034   -0.1589 H   0  0  0  0  0  0  0  0  0  0  0  0
    3.9736    0.7959    1.1730 H   0  0  0  0  0  0  0  0  0  0  0  0
    3.9495    0.2404   -0.5158 H   0  0  0  0  0  0  0  0  0  0  0  0
    0.6269   -2.6587   -0.0762 H   0  0  0  0  0  0  0  0  0  0  0  0
   -1.6088   -3.4750    0.4567 H   0  0  0  0  0  0  0  0  0  0  0  0
   -3.5337   -1.8751    0.4833 H   0  0  0  0  0  0  0  0  0  0  0  0
   -3.2031    0.4801   -0.0150 H   0  0  0  0  0  0  0  0  0  0  0  0
   -1.7642    3.5456   -0.4220 H   0  0  0  0  0  0  0  0  0  0  0  0
  1  2  1  0
  2  3  2  0
  2  4  1  0
  4  5  1  0
  5  6  2  0
  6  7  1  0
  7  8  2  0
  8  9  1  0
  9 10  2  0
 10 11  1  0
 11 12  2  0
 11 13  1  0
 10  5  1  0
  1 14  1  0
  1 15  1  0
  1 16  1  0
  6 17  1  0
  7 18  1  0
  8 19  1  0
  9 20  1  0
 13 21  1  0
M  END
$$$$

     RDKit          3D

 21 21  0  0  0  0  0  0  0  0999 V2000
    3.3944    0.8459    0.2284 C   0  0  0  0  0  0  0  0  0  0  0  0
    2.0177    0.2776    0.3996 C   0  0  0  0  0  0  0  0  0  0  0  0
    1.5252    0.1150    1.5479 O   0  0  0  0  0  0  0  0  0  0  0  0
    1.2499   -0.0838   -0.6900 O   0  0  0  0  0  0  0  0  0  0  0  0
   -0.0199   -0.6014   -0.3583 C   0  0  0  0  0  0  0  0  0  0  0  0
   -0.1854   -1.9625   -0.1505 C   0  0  0  0  0  0  0  0  0  0  0  0
   -1.4464   -2.4364    0.1738 C   0  0  0  0  0  0  0  0  0  0  0  0
   -2.4832   -1.5321    0.2758 C   0  0  0  0  0  0  0  0  0  0  0  0
   -2.3147   -0.1826    0.0688 C   0  0  0  0  0  0  0  0  0  0  0  0
   -1.0598    0.2989   -0.2551 C   0  0  0  0  0  0  0  0  0  0  0  0
   -0.8321    1.7046   -0.4817 C   0  0  0  0  0  0  0  0  0  0  0  0
    0.3065    2.1165   -0.7725 O   0  0  0  0  0  0  0  0  0  0  0  0
   -1.8565    2.6305   -0.3851 O   0  0  0  0  0  0  0  0  0  0  0  0
    3.3707    1.8688   -0.1860 H   0  0  0  0  0  0  0  0  0  0  0  0
    3.9009    0.8605    1.2172 H   0  0  0  0  0  0  0  0  0  0  0  0
    3.9243    0.1446   -0.4533 H   0  0  0  0  0  0  0  0  0  0  0  0
    0.6502   -2.6632   -0.2363 H   0  0  0  0  0  0  0  0  0  0  0  0
   -1.6172   -3.5002    0.3449 H   0  0  0  0  0  0  0  0  0  0  0  0
   -3.4719   -1.8793    0.5269 H   0  0  0  0  0  0  0  0  0  0  0  0
   -3.1485    0.5250    0.1534 H   0  0  0  0  0  0  0  0  0  0  0  0
   -1.9042    3.4537   -0.9678 H   0  0  0  0  0  0  0  0  0  0  0  0
  1  2  1  0
  2  3  2  0
  2  4  1  0
  4  5  1  0
  5  6  2  0
  6  7  1  0
  7  8  2  0
  8  9  1  0
  9 10  2  0
 10 11  1  0
 11 12  2  0
 11 13  1  0
 10  5  1  0
  1 14  1  0
  1 15  1  0
  1 16  1  0
  6 17  1  0
  7 18  1  0
  8 19  1  0
  9 20  1  0
 13 21  1  0
M  END
$$$$

     RDKit          3D

 21 21  0  0  0  0  0  0  0  0999 V2000
    3.2929    0.8985    0.0414 C   0  0  0  0  0  0  0  0  0  0  0  0
    1.9770    0.2574   -0.1933 C   0  0  0  0  0  0  0  0  0  0  0  0
    1.6567   -0.3026   -1.2725 O   0  0  0  0  0  0  0  0  0  0  0  0
    1.0153    0.2564    0.8179 O   0  0  0  0  0  0  0  0  0  0  0  0
   -0.1851   -0.3781    0.4783 C   0  0  0  0  0  0  0  0  0  0  0  0
   -0.2672   -1.7335    0.7538 C   0  0  0  0  0  0  0  0  0  0  0  0
   -1.4430   -2.3691    0.4244 C   0  0  0  0  0  0  0  0  0  0  0  0
   -2.5191   -1.7266   -0.1559 C   0  0  0  0  0  0  0  0  0  0  0  0
   -2.3962   -0.3585   -0.4177 C   0  0  0  0  0  0  0  0  0  0  0  0
   -1.2275    0.3018   -0.0968 C   0  0  0  0  0  0  0  0  0  0  0  0
   -1.1084    1.7303   -0.3741 C   0  0  0  0  0  0  0  0  0  0  0  0
   -2.0839    2.3584   -0.9104 O   0  0  0  0  0  0  0  0  0  0  0  0
    0.0629    2.4057   -0.0555 O   0  0  0  0  0  0  0  0  0  0  0  0
    3.1294    1.8529    0.5578 H   0  0  0  0  0  0  0  0  0  0  0  0
    4.0032    0.2165    0.5711 H   0  0  0  0  0  0  0  0  0  0  0  0
    3.7625    1.0361   -0.9678 H   0  0  0  0  0  0  0  0  0  0  0  0
    0.5582   -2.2662    1.2080 H   0  0  0  0  0  0  0  0  0  0  0  0
   -1.5135   -3.4335    0.6383 H   0  0  0  0  0  0  0  0  0  0  0  0
   -3.4390   -2.2586   -0.4057 H   0  0  0  0  0  0  0  0  0  0  0  0
   -3.2351    0.1223   -0.8655 H   0  0  0  0  0  0  0  0  0  0  0  0
   -0.0399    3.3904    0.2243 H   0  0  0  0  0  0  0  0  0  0  0  0
  1  2  1  0
  2  3  2  0
  2  4  1  0
  4  5  1  0
  5  6  2  0
  6  7  1  0
  7  8  2  0
  8  9  1  0
  9 10  2  0
 10 11  1  0
 11 12  2  0
 11 13  1  0
 10  5  1  0
  1 14  1  0
  1 15  1  0
  1 16  1  0
  6 17  1  0
  7 18  1  0
  8 19  1  0
  9 20  1  0
 13 21  1  0
M  END
$$$$

     RDKit          3D

 21 21  0  0  0  0  0  0  0  0999 V2000
    3.2708    0.9860    0.1013 C   0  0  0  0  0  0  0  0  0  0  0  0
    1.9408    0.3415    0.3743 C   0  0  0  0  0  0  0  0  0  0  0  0
    1.6318    0.0936    1.5679 O   0  0  0  0  0  0  0  0  0  0  0  0
    1.0968    0.0407   -0.6990 O   0  0  0  0  0  0  0  0  0  0  0  0
   -0.1311   -0.5608   -0.3731 C   0  0  0  0  0  0  0  0  0  0  0  0
   -0.2624   -1.9413   -0.2984 C   0  0  0  0  0  0  0  0  0  0  0  0
   -1.4921   -2.4778    0.0260 C   0  0  0  0  0  0  0  0  0  0  0  0
   -2.5775   -1.6671    0.2735 C   0  0  0  0  0  0  0  0  0  0  0  0
   -2.4421   -0.2806    0.1977 C   0  0  0  0  0  0  0  0  0  0  0  0
   -1.2153    0.2584   -0.1261 C   0  0  0  0  0  0  0  0  0  0  0  0
   -1.1059    1.7277   -0.1981 C   0  0  0  0  0  0  0  0  0  0  0  0
   -2.0924    2.4795    0.0265 O   0  0  0  0  0  0  0  0  0  0  0  0
    0.1407    2.2897   -0.5276 O   0  0  0  0  0  0  0  0  0  0  0  0
    3.4441    1.0361   -0.9939 H   0  0  0  0  0  0  0  0  0  0  0  0
    3.3197    2.0247    0.4764 H   0  0  0  0  0  0  0  0  0  0  0  0
    4.0476    0.3183    0.5133 H   0  0  0  0  0  0  0  0  0  0  0  0
    0.6132   -2.5462   -0.4996 H   0  0  0  0  0  0  0  0  0  0  0  0
   -1.5479   -3.5702    0.0730 H   0  0  0  0  0  0  0  0  0  0  0  0
   -3.5164   -2.1429    0.5232 H   0  0  0  0  0  0  0  0  0  0  0  0
   -3.3244    0.3285    0.4004 H   0  0  0  0  0  0  0  0  0  0  0  0
    0.2019    3.2622   -0.8377 H   0  0  0  0  0  0  0  0  0  0  0  0
  1  2  1  0
  2  3  2  0
  2  4  1  0
  4  5  1  0
  5  6  2  0
  6  7  1  0
  7  8  2  0
  8  9  1  0
  9 10  2  0
 10 11  1  0
 11 12  2  0
 11 13  1  0
 10  5  1  0
  1 14  1  0
  1 15  1  0
  1 16  1  0
  6 17  1  0
  7 18  1  0
  8 19  1  0
  9 20  1  0
 13 21  1  0
M  END
$$$$
